Version 4
SHEET 1 1816 680
WIRE 960 -96 752 -96
WIRE 1088 -96 960 -96
WIRE 1200 -96 1088 -96
WIRE 1440 -96 1200 -96
WIRE 1648 -96 1568 -96
WIRE 1664 -96 1648 -96
WIRE 960 -80 960 -96
WIRE 1088 -80 1088 -96
WIRE 752 -32 752 -96
WIRE 1248 32 1136 32
WIRE 1664 32 1664 -96
WIRE 1200 80 1200 -96
WIRE 960 96 960 0
WIRE 992 96 960 96
WIRE 1136 96 1136 32
WIRE 1136 96 1072 96
WIRE 1168 96 1136 96
WIRE 1312 112 1312 32
WIRE 1312 112 1232 112
WIRE 1328 112 1312 112
WIRE 1504 112 1504 -48
WIRE 1504 112 1408 112
WIRE 1088 128 1088 0
WIRE 1168 128 1088 128
WIRE 960 160 960 96
WIRE 1088 160 1088 128
WIRE 1504 192 1504 112
WIRE 752 288 752 48
WIRE 960 288 960 240
WIRE 960 288 752 288
WIRE 1088 288 1088 240
WIRE 1088 288 960 288
WIRE 1504 288 1504 256
WIRE 1504 288 1088 288
WIRE 1664 288 1664 112
WIRE 1664 288 1504 288
FLAG 1200 144 0
FLAG 1088 288 0
FLAG 1648 -96 out
SYMBOL voltage 752 -48 R0
WINDOW 123 0 0 Left 0
WINDOW 39 0 0 Left 0
SYMATTR InstName V1
SYMATTR Value 22
SYMBOL zener 1520 256 R180
WINDOW 0 24 64 Left 2
WINDOW 3 24 0 Left 2
SYMATTR InstName D1
SYMATTR Value UDZV11B
SYMATTR Description Diode
SYMATTR Type diode
SYMBOL regulators 1568 -80 R0
WINDOW 38 -64 -34 Center 2
SYMATTR SpiceModel LM317
SYMATTR InstName U1
SYMBOL res 944 -96 R0
SYMATTR InstName R1
SYMATTR Value 50k
SYMBOL res 944 144 R0
SYMATTR InstName R2
SYMATTR Value 2.1k
SYMBOL res 1072 -96 R0
SYMATTR InstName R3
SYMATTR Value 10Meg
SYMBOL res 1072 144 R0
SYMATTR InstName R4
SYMATTR Value 470k
SYMBOL cap 1312 16 R90
WINDOW 0 0 32 VBottom 2
WINDOW 3 32 32 VTop 2
SYMATTR InstName C2
SYMATTR Value 5µ
SYMBOL res 1648 16 R0
SYMATTR InstName R6
SYMATTR Value 67
SYMBOL res 1088 80 R90
WINDOW 0 0 56 VBottom 2
WINDOW 3 32 56 VTop 2
SYMATTR InstName R7
SYMATTR Value 470k
SYMBOL OpAmps\\opamp2 1200 48 R0
WINDOW 3 -19 125 Left 2
SYMATTR Value LM358_AB
SYMATTR InstName U2
SYMBOL res 1424 96 R90
WINDOW 0 0 56 VBottom 2
WINDOW 3 32 56 VTop 2
SYMATTR InstName R5
SYMATTR Value 10k
TEXT 808 160 Left 2 ;NTC\n10k @ 25\n2.5k @ 60
TEXT 944 328 Left 2 !.inc LM358_AB.sub
TEXT 816 392 Left 2 !.tran 0 600 0 startup
TEXT 1528 224 Left 2 ;11V
